26

C    -4.718721000000     -2.067057000000     -0.233640000000
C    -3.337045000000     -2.086215000000     -0.120796000000
C    -2.622381000000     -0.895641000000      0.011416000000
C    -3.316676000000      0.316069000000      0.030661000000
C    -4.709989000000      0.327696000000     -0.073866000000
C    -5.410536000000     -0.857430000000     -0.205320000000
C    -1.120604000000     -0.954730000000      0.203262000000
C    -2.599755000000      1.618136000000      0.122825000000
C    -1.114340000000      1.582249000000      0.019837000000
C    -0.416380000000      0.372542000000      0.008220000000
C     0.972165000000      0.390511000000     -0.123832000000
H     1.513048000000     -0.548549000000     -0.131321000000
C     1.650364000000      1.593179000000     -0.248833000000
C     0.952513000000      2.799629000000     -0.234080000000
C    -0.423982000000      2.791287000000     -0.099273000000
H    -5.261898000000     -2.999519000000     -0.339888000000
H    -2.796938000000     -3.025541000000     -0.137973000000
H    -5.217634000000      1.284751000000     -0.053793000000
H    -6.491083000000     -0.845271000000     -0.287867000000
H     2.729581000000      1.591880000000     -0.354618000000
H     1.485297000000      3.738799000000     -0.329402000000
H    -0.996298000000      3.711337000000     -0.088072000000
O    -3.201981000000      2.666140000000      0.237496000000
O    -0.525434000000     -1.990326000000     -0.559811000000
H    -0.944555000000     -1.260474000000      1.241852000000
H    -0.638395000000     -1.778913000000     -1.490075000000
